[Config General]
network = SimNetwork
sim-time-limit = 5s 
#**.radio.packetErrorRate.result-recording-modes = +vector
#**.radio.bitErrorRate.result-recording-modes = +vector

# Routing settings
*.*.ipv4.arp.typename = "GlobalArp"
*.*.ipv4.routingTable.netmaskRoutes = ""

# Wireless settings

*.area1AP.wlan[*].mgmt.ssid = "area11"
*.area3AP.wlan[*].mgmt.ssid = "area33"


*.AP[*].wlan[*].mgmt.ssid = "area2"
*.STA[*].wlan[*].agent.defaultSsid = "area1"



#
#*.STA[*].numApps = 1
#*.STA[*].app[*].typename = "UdpBasicApp2"
#*.STA[*].app[0].destAddresses="AP[0]" 

#*.STA[1].app[0].destAddresses=" AP[3] "
#*.STA[2].app[0].destAddresses=" AP[3] "
#*.STA[3].app[0].destAddresses=" AP[3] "
#*.STA[4].app[0].destAddresses=" AP[5] "
#*.STA[5].app[0].destAddresses=" AP[6] "
#*.STA[6].app[0].destAddresses=" AP[18] "
#*.STA[7].app[0].destAddresses=" AP[14] "
#*.STA[8].app[0].destAddresses=" AP[0] "
#*.STA[9].app[0].destAddresses=" AP[24] "
#*.STA[10].app[0].destAddresses=" AP[2] "
#*.STA[11].app[0].destAddresses=" AP[17] "
#*.STA[12].app[0].destAddresses=" AP[7] "
#*.STA[13].app[0].destAddresses=" AP[21] "
#*.STA[14].app[0].destAddresses=" AP[6] "
#*.STA[15].app[0].destAddresses=" AP[14] "
#*.STA[16].app[0].destAddresses=" AP[14] "
#*.STA[17].app[0].destAddresses=" AP[2] "
#*.STA[18].app[0].destAddresses=" AP[19] "
#*.STA[19].app[0].destAddresses=" AP[21] "
#*.STA[20].app[0].destAddresses=" AP[13] "
#*.STA[21].app[0].destAddresses=" AP[23] "
#*.STA[22].app[0].destAddresses=" AP[7] "
#*.STA[23].app[0].destAddresses=" AP[1] "
#*.STA[24].app[0].destAddresses=" AP[11] "
#*.STA[25].app[0].destAddresses=" AP[1] "
#*.STA[26].app[0].destAddresses=" AP[9] "
#*.STA[27].app[0].destAddresses=" AP[18] "
#*.STA[28].app[0].destAddresses=" AP[16] "
#*.STA[29].app[0].destAddresses=" AP[24] "
#*.STA[30].app[0].destAddresses=" AP[3] "
#*.STA[31].app[0].destAddresses=" AP[4] "
#*.STA[32].app[0].destAddresses=" AP[3] "
#*.STA[33].app[0].destAddresses=" AP[14] "
#*.STA[34].app[0].destAddresses=" AP[25] "
#*.STA[35].app[0].destAddresses=" AP[12] "
#*.STA[36].app[0].destAddresses=" AP[16] "
#*.STA[37].app[0].destAddresses=" AP[14] "
#*.STA[38].app[0].destAddresses=" AP[13] "
#*.STA[39].app[0].destAddresses=" AP[4] "
#*.STA[40].app[0].destAddresses=" AP[15] "
#*.STA[41].app[0].destAddresses=" AP[14] "
#*.STA[42].app[0].destAddresses=" AP[8] "
#*.STA[43].app[0].destAddresses=" AP[4] "
#*.STA[44].app[0].destAddresses=" AP[7] "
#*.STA[45].app[0].destAddresses=" AP[12] "
#*.STA[46].app[0].destAddresses=" AP[14] "
#*.STA[47].app[0].destAddresses=" AP[12] "
#*.STA[48].app[0].destAddresses=" AP[10] "
#*.STA[49].app[0].destAddresses=" AP[12] "
#*.STA[50].app[0].destAddresses=" AP[13] "
#*.STA[51].app[0].destAddresses=" AP[15] "
#*.STA[52].app[0].destAddresses=" AP[3] "
#*.STA[53].app[0].destAddresses=" AP[9] "
#*.STA[54].app[0].destAddresses=" AP[4] "
#*.STA[55].app[0].destAddresses=" AP[11] "
#*.STA[56].app[0].destAddresses=" AP[5] "
#*.STA[57].app[0].destAddresses=" AP[20] "
#*.STA[58].app[0].destAddresses=" AP[22] "
#*.STA[59].app[0].destAddresses=" AP[24] "
#*.STA[60].app[0].destAddresses=" AP[16] "
#*.STA[61].app[0].destAddresses=" AP[5] "
#*.STA[62].app[0].destAddresses=" AP[11] "
#*.STA[63].app[0].destAddresses=" AP[17] "
#*.STA[64].app[0].destAddresses=" AP[10] "
#*.STA[65].app[0].destAddresses=" AP[0] "
#*.STA[66].app[0].destAddresses=" AP[15] "
#*.STA[67].app[0].destAddresses=" AP[5] "
#*.STA[68].app[0].destAddresses=" AP[24] "
#*.STA[69].app[0].destAddresses=" AP[0] "
#*.STA[70].app[0].destAddresses=" AP[3] "
#*.STA[71].app[0].destAddresses=" AP[12] "
#*.STA[72].app[0].destAddresses=" AP[10] "
#*.STA[73].app[0].destAddresses=" AP[24] "
#*.STA[74].app[0].destAddresses=" AP[7] "
#*.STA[75].app[0].destAddresses=" AP[3] "
#*.STA[76].app[0].destAddresses=" AP[6] "
#*.STA[77].app[0].destAddresses=" AP[13] "
#*.STA[78].app[0].destAddresses=" AP[7] "
#*.STA[79].app[0].destAddresses=" AP[13] "
#*.STA[80].app[0].destAddresses=" AP[18] "
#*.STA[81].app[0].destAddresses=" AP[4] "
#*.STA[82].app[0].destAddresses=" AP[6] "
#*.STA[83].app[0].destAddresses=" AP[12] "
#*.STA[84].app[0].destAddresses=" AP[13] "
#*.STA[85].app[0].destAddresses=" AP[6] "
#*.STA[86].app[0].destAddresses=" AP[14] "
#*.STA[87].app[0].destAddresses=" AP[0] "
#*.STA[88].app[0].destAddresses=" AP[19] "
#*.STA[89].app[0].destAddresses=" AP[23] "
#*.STA[90].app[0].destAddresses=" AP[18] "
#*.STA[91].app[0].destAddresses=" AP[0] "
#*.STA[92].app[0].destAddresses=" AP[22] "
#*.STA[93].app[0].destAddresses=" AP[0] "
#*.STA[94].app[0].destAddresses=" AP[16] "
#*.STA[95].app[0].destAddresses=" AP[9] "
#*.STA[96].app[0].destAddresses=" AP[15] "
#*.STA[97].app[0].destAddresses=" AP[6] "
#*.STA[98].app[0].destAddresses=" AP[5] "
#*.STA[99].app[0].destAddresses=" AP[24] "


*.STA[*].app[*].messageLength = 1000byte
*.STA[*].app[*].destPort = 1000
*.STA[*].app[*].sendInterval = 100ms
*.STA[*].app[*].idleInterval = 1ms
*.STA[*].app[*].timeInterval = 1ms




**.crcMode = "computed"
**.fcsMode = "computed"
**.pcapRecorder[*].alwaysFlush = true
*.STA[0].numPcapRecorders = 1
#positions



*.STA[*].mobility.typename = "StationaryMobility"
*.AP[*].mobility.typename = "StationaryMobility"


*.AP[0].mobility.constraintAreaMinX = 48.36m
*.AP[0].mobility.constraintAreaMaxX = 48.36m
*.AP[0].mobility.constraintAreaMinY = 120.9m
*.AP[0].mobility.constraintAreaMaxY = 120.9m
*.AP[0].mobility.constraintAreaMinZ = 1.5m
*.AP[0].mobility.constraintAreaMaxZ = 1.5m
*.AP[1].mobility.constraintAreaMinX = 53.73333333333334m
*.AP[1].mobility.constraintAreaMaxX = 53.73333333333334m
*.AP[1].mobility.constraintAreaMinY = 115.52666666666667m
*.AP[1].mobility.constraintAreaMaxY = 115.52666666666667m
*.AP[1].mobility.constraintAreaMinZ = 1.5m
*.AP[1].mobility.constraintAreaMaxZ = 1.5m
*.AP[2].mobility.constraintAreaMinX = 51.046666666666674m
*.AP[2].mobility.constraintAreaMaxX = 51.046666666666674m
*.AP[2].mobility.constraintAreaMinY = 102.09333333333335m
*.AP[2].mobility.constraintAreaMaxY = 102.09333333333335m
*.AP[2].mobility.constraintAreaMinZ = 1.5m
*.AP[2].mobility.constraintAreaMaxZ = 1.5m
*.AP[3].mobility.constraintAreaMinX = 83.28666666666668m
*.AP[3].mobility.constraintAreaMaxX = 83.28666666666668m
*.AP[3].mobility.constraintAreaMinY = 102.09333333333335m
*.AP[3].mobility.constraintAreaMaxY = 102.09333333333335m
*.AP[3].mobility.constraintAreaMinZ = 1.5m
*.AP[3].mobility.constraintAreaMaxZ = 1.5m
*.AP[4].mobility.constraintAreaMinX = 18.80666666666667m
*.AP[4].mobility.constraintAreaMaxX = 18.80666666666667m
*.AP[4].mobility.constraintAreaMinY = 88.66000000000001m
*.AP[4].mobility.constraintAreaMaxY = 88.66000000000001m
*.AP[4].mobility.constraintAreaMinZ = 1.5m
*.AP[4].mobility.constraintAreaMaxZ = 1.5m
*.AP[5].mobility.constraintAreaMinX = 123.58666666666669m
*.AP[5].mobility.constraintAreaMaxX = 123.58666666666669m
*.AP[5].mobility.constraintAreaMinY = 88.66000000000001m
*.AP[5].mobility.constraintAreaMaxY = 88.66000000000001m
*.AP[5].mobility.constraintAreaMinZ = 1.5m
*.AP[5].mobility.constraintAreaMaxZ = 1.5m
*.AP[6].mobility.constraintAreaMinX = 32.24m
*.AP[6].mobility.constraintAreaMaxX = 32.24m
*.AP[6].mobility.constraintAreaMinY = 83.28666666666668m
*.AP[6].mobility.constraintAreaMaxY = 83.28666666666668m
*.AP[6].mobility.constraintAreaMinZ = 1.5m
*.AP[6].mobility.constraintAreaMaxZ = 1.5m
*.AP[7].mobility.constraintAreaMinX = 102.09333333333335m
*.AP[7].mobility.constraintAreaMaxX = 102.09333333333335m
*.AP[7].mobility.constraintAreaMinY = 83.28666666666668m
*.AP[7].mobility.constraintAreaMaxY = 83.28666666666668m
*.AP[7].mobility.constraintAreaMinZ = 1.5m
*.AP[7].mobility.constraintAreaMaxZ = 1.5m
*.AP[8].mobility.constraintAreaMinX = 13.433333333333335m
*.AP[8].mobility.constraintAreaMaxX = 13.433333333333335m
*.AP[8].mobility.constraintAreaMinY = 80.60000000000001m
*.AP[8].mobility.constraintAreaMaxY = 80.60000000000001m
*.AP[8].mobility.constraintAreaMinZ = 1.5m
*.AP[8].mobility.constraintAreaMaxZ = 1.5m
*.AP[9].mobility.constraintAreaMinX = 115.52666666666667m
*.AP[9].mobility.constraintAreaMaxX = 115.52666666666667m
*.AP[9].mobility.constraintAreaMinY = 80.60000000000001m
*.AP[9].mobility.constraintAreaMaxY = 80.60000000000001m
*.AP[9].mobility.constraintAreaMinZ = 1.5m
*.AP[9].mobility.constraintAreaMaxZ = 1.5m
*.AP[10].mobility.constraintAreaMinX = 123.58666666666669m
*.AP[10].mobility.constraintAreaMaxX = 123.58666666666669m
*.AP[10].mobility.constraintAreaMinY = 53.73333333333334m
*.AP[10].mobility.constraintAreaMaxY = 53.73333333333334m
*.AP[10].mobility.constraintAreaMinZ = 1.5m
*.AP[10].mobility.constraintAreaMaxZ = 1.5m
*.AP[11].mobility.constraintAreaMinX = 32.24m
*.AP[11].mobility.constraintAreaMaxX = 32.24m
*.AP[11].mobility.constraintAreaMinY = 51.046666666666674m
*.AP[11].mobility.constraintAreaMaxY = 51.046666666666674m
*.AP[11].mobility.constraintAreaMinZ = 1.5m
*.AP[11].mobility.constraintAreaMaxZ = 1.5m
*.AP[12].mobility.constraintAreaMinX = 102.09333333333335m
*.AP[12].mobility.constraintAreaMaxX = 102.09333333333335m
*.AP[12].mobility.constraintAreaMinY = 51.046666666666674m
*.AP[12].mobility.constraintAreaMaxY = 51.046666666666674m
*.AP[12].mobility.constraintAreaMinZ = 1.5m
*.AP[12].mobility.constraintAreaMaxZ = 1.5m
*.AP[13].mobility.constraintAreaMinX = 13.433333333333335m
*.AP[13].mobility.constraintAreaMaxX = 13.433333333333335m
*.AP[13].mobility.constraintAreaMinY = 48.36m
*.AP[13].mobility.constraintAreaMaxY = 48.36m
*.AP[13].mobility.constraintAreaMinZ = 1.5m
*.AP[13].mobility.constraintAreaMaxZ = 1.5m
*.AP[14].mobility.constraintAreaMinX = 51.046666666666674m
*.AP[14].mobility.constraintAreaMaxX = 51.046666666666674m
*.AP[14].mobility.constraintAreaMinY = 32.24m
*.AP[14].mobility.constraintAreaMaxY = 32.24m
*.AP[14].mobility.constraintAreaMinZ = 1.5m
*.AP[14].mobility.constraintAreaMaxZ = 1.5m
*.AP[15].mobility.constraintAreaMinX = 83.28666666666668m
*.AP[15].mobility.constraintAreaMaxX = 83.28666666666668m
*.AP[15].mobility.constraintAreaMinY = 32.24m
*.AP[15].mobility.constraintAreaMaxY = 32.24m
*.AP[15].mobility.constraintAreaMinZ = 1.5m
*.AP[15].mobility.constraintAreaMaxZ = 1.5m
*.AP[16].mobility.constraintAreaMinX = 26.86666666666667m
*.AP[16].mobility.constraintAreaMaxX = 26.86666666666667m
*.AP[16].mobility.constraintAreaMinY = 29.553333333333335m
*.AP[16].mobility.constraintAreaMaxY = 29.553333333333335m
*.AP[16].mobility.constraintAreaMinZ = 1.5m
*.AP[16].mobility.constraintAreaMaxZ = 1.5m
*.AP[17].mobility.constraintAreaMinX = 123.58666666666669m
*.AP[17].mobility.constraintAreaMaxX = 123.58666666666669m
*.AP[17].mobility.constraintAreaMinY = 26.86666666666667m
*.AP[17].mobility.constraintAreaMaxY = 26.86666666666667m
*.AP[17].mobility.constraintAreaMinZ = 1.5m
*.AP[17].mobility.constraintAreaMaxZ = 1.5m
*.AP[18].mobility.constraintAreaMinX = 85.97333333333334m
*.AP[18].mobility.constraintAreaMaxX = 85.97333333333334m
*.AP[18].mobility.constraintAreaMinY = 24.18m
*.AP[18].mobility.constraintAreaMaxY = 24.18m
*.AP[18].mobility.constraintAreaMinZ = 1.5m
*.AP[18].mobility.constraintAreaMaxZ = 1.5m
*.AP[19].mobility.constraintAreaMinX = 80.60000000000001m
*.AP[19].mobility.constraintAreaMaxX = 80.60000000000001m
*.AP[19].mobility.constraintAreaMinY = 21.493333333333336m
*.AP[19].mobility.constraintAreaMaxY = 21.493333333333336m
*.AP[19].mobility.constraintAreaMinZ = 1.5m
*.AP[19].mobility.constraintAreaMaxZ = 1.5m
*.AP[20].mobility.constraintAreaMinX = 123.58666666666669m
*.AP[20].mobility.constraintAreaMaxX = 123.58666666666669m
*.AP[20].mobility.constraintAreaMinY = 18.80666666666667m
*.AP[20].mobility.constraintAreaMaxY = 18.80666666666667m
*.AP[20].mobility.constraintAreaMinZ = 1.5m
*.AP[20].mobility.constraintAreaMaxZ = 1.5m
*.AP[21].mobility.constraintAreaMinX = 53.73333333333334m
*.AP[21].mobility.constraintAreaMaxX = 53.73333333333334m
*.AP[21].mobility.constraintAreaMinY = 13.433333333333335m
*.AP[21].mobility.constraintAreaMaxY = 13.433333333333335m
*.AP[21].mobility.constraintAreaMinZ = 1.5m
*.AP[21].mobility.constraintAreaMaxZ = 1.5m
*.AP[22].mobility.constraintAreaMinX = 10.746666666666668m
*.AP[22].mobility.constraintAreaMaxX = 10.746666666666668m
*.AP[22].mobility.constraintAreaMinY = 10.746666666666668m
*.AP[22].mobility.constraintAreaMaxY = 10.746666666666668m
*.AP[22].mobility.constraintAreaMinZ = 1.5m
*.AP[22].mobility.constraintAreaMaxZ = 1.5m
*.AP[23].mobility.constraintAreaMinX = 26.86666666666667m
*.AP[23].mobility.constraintAreaMaxX = 26.86666666666667m
*.AP[23].mobility.constraintAreaMinY = 10.746666666666668m
*.AP[23].mobility.constraintAreaMaxY = 10.746666666666668m
*.AP[23].mobility.constraintAreaMinZ = 1.5m
*.AP[23].mobility.constraintAreaMaxZ = 1.5m
*.AP[24].mobility.constraintAreaMinX = 110.15333333333334m
*.AP[24].mobility.constraintAreaMaxX = 110.15333333333334m
*.AP[24].mobility.constraintAreaMinY = 10.746666666666668m
*.AP[24].mobility.constraintAreaMaxY = 10.746666666666668m
*.AP[24].mobility.constraintAreaMinZ = 1.5m
*.AP[24].mobility.constraintAreaMaxZ = 1.5m
*.AP[25].mobility.constraintAreaMinX = 118.21333333333334m
*.AP[25].mobility.constraintAreaMaxX = 118.21333333333334m
*.AP[25].mobility.constraintAreaMinY = 10.746666666666668m
*.AP[25].mobility.constraintAreaMaxY = 10.746666666666668m
*.AP[25].mobility.constraintAreaMinZ = 1.5m
*.AP[25].mobility.constraintAreaMaxZ = 1.5m
*.STA[0].mobility.constraintAreaMinX = 61.64004607679736m
*.STA[0].mobility.constraintAreaMaxX = 61.64004607679736m
*.STA[0].mobility.constraintAreaMinY = 120.559942371949965m
*.STA[0].mobility.constraintAreaMaxY = 120.559942371949965m
*.STA[0].mobility.constraintAreaMinZ = 1.5m
*.STA[0].mobility.constraintAreaMaxZ = 1.5m
*.STA[1].mobility.constraintAreaMinX = 61.14232857944016m
*.STA[1].mobility.constraintAreaMaxX = 61.14232857944016m
*.STA[1].mobility.constraintAreaMinY = 170.41023242615162m
*.STA[1].mobility.constraintAreaMaxY = 170.41023242615162m
*.STA[1].mobility.constraintAreaMinZ = 1.5m
*.STA[1].mobility.constraintAreaMaxZ = 1.5m
*.STA[2].mobility.constraintAreaMinX = 87.49927903312796m
*.STA[2].mobility.constraintAreaMaxX = 87.49927903312796m
*.STA[2].mobility.constraintAreaMinY = 133.18763825730315m
*.STA[2].mobility.constraintAreaMaxY = 133.18763825730315m
*.STA[2].mobility.constraintAreaMinZ = 1.5m
*.STA[2].mobility.constraintAreaMaxZ = 1.5m
*.STA[3].mobility.constraintAreaMinX = 77.43248966678442m
*.STA[3].mobility.constraintAreaMaxX = 77.43248966678442m
*.STA[3].mobility.constraintAreaMinY = 80.82742773389425m
*.STA[3].mobility.constraintAreaMaxY = 80.82742773389425m
*.STA[3].mobility.constraintAreaMinZ = 1.5m
*.STA[3].mobility.constraintAreaMaxZ = 1.5m
*.STA[4].mobility.constraintAreaMinX = 120.0414549077809m
*.STA[4].mobility.constraintAreaMaxX = 120.0414549077809m
*.STA[4].mobility.constraintAreaMinY = 115.29329260671906m
*.STA[4].mobility.constraintAreaMaxY = 115.29329260671906m
*.STA[4].mobility.constraintAreaMinZ = 1.5m
*.STA[4].mobility.constraintAreaMaxZ = 1.5m
*.STA[5].mobility.constraintAreaMinX = 40.91052881535677m
*.STA[5].mobility.constraintAreaMaxX = 40.91052881535677m
*.STA[5].mobility.constraintAreaMinY = 70.44279020917907m
*.STA[5].mobility.constraintAreaMaxY = 70.44279020917907m
*.STA[5].mobility.constraintAreaMinZ = 1.5m
*.STA[5].mobility.constraintAreaMaxZ = 1.5m
*.STA[6].mobility.constraintAreaMinX = 88.85367043855011m
*.STA[6].mobility.constraintAreaMaxX = 88.85367043855011m
*.STA[6].mobility.constraintAreaMinY = 17.020012672627495m
*.STA[6].mobility.constraintAreaMaxY = 17.020012672627495m
*.STA[6].mobility.constraintAreaMinZ = 1.5m
*.STA[6].mobility.constraintAreaMaxZ = 1.5m
*.STA[7].mobility.constraintAreaMinX = 41.302322203906996m
*.STA[7].mobility.constraintAreaMaxX = 41.302322203906996m
*.STA[7].mobility.constraintAreaMinY = 39.154385025854594m
*.STA[7].mobility.constraintAreaMaxY = 39.154385025854594m
*.STA[7].mobility.constraintAreaMinZ = 1.5m
*.STA[7].mobility.constraintAreaMaxZ = 1.5m
*.STA[8].mobility.constraintAreaMinX = 16.63676071875141m
*.STA[8].mobility.constraintAreaMaxX = 16.63676071875141m
*.STA[8].mobility.constraintAreaMinY = 122.74851817373647m
*.STA[8].mobility.constraintAreaMaxY = 122.74851817373647m
*.STA[8].mobility.constraintAreaMinZ = 1.5m
*.STA[8].mobility.constraintAreaMaxZ = 1.5m
*.STA[9].mobility.constraintAreaMinX = 93.1721861693228m
*.STA[9].mobility.constraintAreaMaxX = 93.1721861693228m
*.STA[9].mobility.constraintAreaMinY = 2.074420283579447m
*.STA[9].mobility.constraintAreaMaxY = 2.074420283579447m
*.STA[9].mobility.constraintAreaMinZ = 1.5m
*.STA[9].mobility.constraintAreaMaxZ = 1.5m
*.STA[10].mobility.constraintAreaMinX = 36.315624900346464m
*.STA[10].mobility.constraintAreaMaxX = 36.315624900346464m
*.STA[10].mobility.constraintAreaMinY = 108.18813073242686m
*.STA[10].mobility.constraintAreaMaxY = 108.18813073242686m
*.STA[10].mobility.constraintAreaMinZ = 1.5m
*.STA[10].mobility.constraintAreaMaxZ = 1.5m
*.STA[11].mobility.constraintAreaMinX = 109.92545067068481m
*.STA[11].mobility.constraintAreaMaxX = 109.92545067068481m
*.STA[11].mobility.constraintAreaMinY = 32.04129100960422m
*.STA[11].mobility.constraintAreaMaxY = 32.04129100960422m
*.STA[11].mobility.constraintAreaMinZ = 1.5m
*.STA[11].mobility.constraintAreaMaxZ = 1.5m
*.STA[12].mobility.constraintAreaMinX = 102.8578609114179m
*.STA[12].mobility.constraintAreaMaxX = 102.8578609114179m
*.STA[12].mobility.constraintAreaMinY = 100.9094342747896m
*.STA[12].mobility.constraintAreaMaxY = 100.9094342747896m
*.STA[12].mobility.constraintAreaMinZ = 1.5m
*.STA[12].mobility.constraintAreaMaxZ = 1.5m
*.STA[13].mobility.constraintAreaMinX = 45.37106103721556m
*.STA[13].mobility.constraintAreaMaxX = 45.37106103721556m
*.STA[13].mobility.constraintAreaMinY = 18.423348942714163m
*.STA[13].mobility.constraintAreaMaxY = 18.423348942714163m
*.STA[13].mobility.constraintAreaMinZ = 1.5m
*.STA[13].mobility.constraintAreaMaxZ = 1.5m
*.STA[14].mobility.constraintAreaMinX = 49.3030473536549m
*.STA[14].mobility.constraintAreaMaxX = 49.3030473536549m
*.STA[14].mobility.constraintAreaMinY = 69.31663216262363m
*.STA[14].mobility.constraintAreaMaxY = 69.31663216262363m
*.STA[14].mobility.constraintAreaMinZ = 1.5m
*.STA[14].mobility.constraintAreaMaxZ = 1.5m
*.STA[15].mobility.constraintAreaMinX = 59.34219144803759m
*.STA[15].mobility.constraintAreaMaxX = 59.34219144803759m
*.STA[15].mobility.constraintAreaMinY = 42.679651026009545m
*.STA[15].mobility.constraintAreaMaxY = 42.679651026009545m
*.STA[15].mobility.constraintAreaMinZ = 1.5m
*.STA[15].mobility.constraintAreaMaxZ = 1.5m
*.STA[16].mobility.constraintAreaMinX = 59.79335670014509m
*.STA[16].mobility.constraintAreaMaxX = 59.79335670014509m
*.STA[16].mobility.constraintAreaMinY = 41.029555553796186m
*.STA[16].mobility.constraintAreaMaxY = 41.029555553796186m
*.STA[16].mobility.constraintAreaMinZ = 1.5m
*.STA[16].mobility.constraintAreaMaxZ = 1.5m
*.STA[17].mobility.constraintAreaMinX = 31.134339018580846m
*.STA[17].mobility.constraintAreaMaxX = 31.134339018580846m
*.STA[17].mobility.constraintAreaMinY = 108.74274619961876m
*.STA[17].mobility.constraintAreaMaxY = 108.74274619961876m
*.STA[17].mobility.constraintAreaMinZ = 1.5m
*.STA[17].mobility.constraintAreaMaxZ = 1.5m
*.STA[18].mobility.constraintAreaMinX = 76.85071791039103m
*.STA[18].mobility.constraintAreaMaxX = 76.85071791039103m
*.STA[18].mobility.constraintAreaMinY = 27.72690110373055m
*.STA[18].mobility.constraintAreaMaxY = 27.72690110373055m
*.STA[18].mobility.constraintAreaMinZ = 1.5m
*.STA[18].mobility.constraintAreaMaxZ = 1.5m
*.STA[19].mobility.constraintAreaMinX = 44.22720956732309m
*.STA[19].mobility.constraintAreaMaxX = 44.22720956732309m
*.STA[19].mobility.constraintAreaMinY = 10.890542224628946m
*.STA[19].mobility.constraintAreaMaxY = 10.890542224628946m
*.STA[19].mobility.constraintAreaMinZ = 1.5m
*.STA[19].mobility.constraintAreaMaxZ = 1.5m
*.STA[20].mobility.constraintAreaMinX = 13.168490568342055m
*.STA[20].mobility.constraintAreaMaxX = 13.168490568342055m
*.STA[20].mobility.constraintAreaMinY = 50.548921925112076m
*.STA[20].mobility.constraintAreaMaxY = 50.548921925112076m
*.STA[20].mobility.constraintAreaMinZ = 1.5m
*.STA[20].mobility.constraintAreaMaxZ = 1.5m
*.STA[21].mobility.constraintAreaMinX = 36.004208018293355m
*.STA[21].mobility.constraintAreaMaxX = 36.004208018293355m
*.STA[21].mobility.constraintAreaMinY = 9.077859168811669m
*.STA[21].mobility.constraintAreaMaxY = 9.077859168811669m
*.STA[21].mobility.constraintAreaMinZ = 1.5m
*.STA[21].mobility.constraintAreaMaxZ = 1.5m
*.STA[22].mobility.constraintAreaMinX = 95.07077385607569m
*.STA[22].mobility.constraintAreaMaxX = 95.07077385607569m
*.STA[22].mobility.constraintAreaMinY = 75.1189093908687m
*.STA[22].mobility.constraintAreaMaxY = 75.1189093908687m
*.STA[22].mobility.constraintAreaMinZ = 1.5m
*.STA[22].mobility.constraintAreaMaxZ = 1.5m
*.STA[23].mobility.constraintAreaMinX = 67.05261483529512m
*.STA[23].mobility.constraintAreaMaxX = 67.05261483529512m
*.STA[23].mobility.constraintAreaMinY = 108.7478265735083m
*.STA[23].mobility.constraintAreaMaxY = 108.7478265735083m
*.STA[23].mobility.constraintAreaMinZ = 1.5m
*.STA[23].mobility.constraintAreaMaxZ = 1.5m
*.STA[24].mobility.constraintAreaMinX = 35.4307980132894m
*.STA[24].mobility.constraintAreaMaxX = 35.4307980132894m
*.STA[24].mobility.constraintAreaMinY = 54.48784160454023m
*.STA[24].mobility.constraintAreaMaxY = 54.48784160454023m
*.STA[24].mobility.constraintAreaMinZ = 1.5m
*.STA[24].mobility.constraintAreaMaxZ = 1.5m
*.STA[25].mobility.constraintAreaMinX = 66.88081907898888m
*.STA[25].mobility.constraintAreaMaxX = 66.88081907898888m
*.STA[25].mobility.constraintAreaMinY = 123.54852971564452m
*.STA[25].mobility.constraintAreaMaxY = 123.54852971564452m
*.STA[25].mobility.constraintAreaMinZ = 1.5m
*.STA[25].mobility.constraintAreaMaxZ = 1.5m
*.STA[26].mobility.constraintAreaMinX = 115.22555488134016m
*.STA[26].mobility.constraintAreaMaxX = 115.22555488134016m
*.STA[26].mobility.constraintAreaMinY = 71.19881522879344m
*.STA[26].mobility.constraintAreaMaxY = 71.19881522879344m
*.STA[26].mobility.constraintAreaMinZ = 1.5m
*.STA[26].mobility.constraintAreaMaxZ = 1.5m
*.STA[27].mobility.constraintAreaMinX = 86.47733166635804m
*.STA[27].mobility.constraintAreaMaxX = 86.47733166635804m
*.STA[27].mobility.constraintAreaMinY = 28.695156518575683m
*.STA[27].mobility.constraintAreaMaxY = 28.695156518575683m
*.STA[27].mobility.constraintAreaMinZ = 1.5m
*.STA[27].mobility.constraintAreaMaxZ = 1.5m
*.STA[28].mobility.constraintAreaMinX = 37.19646425235167m
*.STA[28].mobility.constraintAreaMaxX = 37.19646425235167m
*.STA[28].mobility.constraintAreaMinY = 28.182577737624214m
*.STA[28].mobility.constraintAreaMaxY = 28.182577737624214m
*.STA[28].mobility.constraintAreaMinZ = 1.5m
*.STA[28].mobility.constraintAreaMaxZ = 1.5m
*.STA[29].mobility.constraintAreaMinX = 98.90328361756006m
*.STA[29].mobility.constraintAreaMaxX = 98.90328361756006m
*.STA[29].mobility.constraintAreaMinY = 5.392279921473907m
*.STA[29].mobility.constraintAreaMaxY = 5.392279921473907m
*.STA[29].mobility.constraintAreaMinZ = 1.5m
*.STA[29].mobility.constraintAreaMaxZ = 1.5m
*.STA[30].mobility.constraintAreaMinX = 85.44074580227634m
*.STA[30].mobility.constraintAreaMaxX = 85.44074580227634m
*.STA[30].mobility.constraintAreaMinY = 119.89720394043829m
*.STA[30].mobility.constraintAreaMaxY = 119.89720394043829m
*.STA[30].mobility.constraintAreaMinZ = 1.5m
*.STA[30].mobility.constraintAreaMaxZ = 1.5m
*.STA[31].mobility.constraintAreaMinX = 3.5334573148601143m
*.STA[31].mobility.constraintAreaMaxX = 3.5334573148601143m
*.STA[31].mobility.constraintAreaMinY = 117.0798129554823m
*.STA[31].mobility.constraintAreaMaxY = 117.0798129554823m
*.STA[31].mobility.constraintAreaMinZ = 1.5m
*.STA[31].mobility.constraintAreaMaxZ = 1.5m
*.STA[32].mobility.constraintAreaMinX = 82.47905954691744m
*.STA[32].mobility.constraintAreaMaxX = 82.47905954691744m
*.STA[32].mobility.constraintAreaMinY = 110.42670546146297m
*.STA[32].mobility.constraintAreaMaxY = 110.42670546146297m
*.STA[32].mobility.constraintAreaMinZ = 1.5m
*.STA[32].mobility.constraintAreaMaxZ = 1.5m
*.STA[33].mobility.constraintAreaMinX = 59.189800230416665m
*.STA[33].mobility.constraintAreaMaxX = 59.189800230416665m
*.STA[33].mobility.constraintAreaMinY = 39.31640786312424m
*.STA[33].mobility.constraintAreaMaxY = 39.31640786312424m
*.STA[33].mobility.constraintAreaMinZ = 1.5m
*.STA[33].mobility.constraintAreaMaxZ = 1.5m
*.STA[34].mobility.constraintAreaMinX = 114.38358107040278m
*.STA[34].mobility.constraintAreaMaxX = 114.38358107040278m
*.STA[34].mobility.constraintAreaMinY = 0.6157020647276307m
*.STA[34].mobility.constraintAreaMaxY = 0.6157020647276307m
*.STA[34].mobility.constraintAreaMinZ = 1.5m
*.STA[34].mobility.constraintAreaMaxZ = 1.5m
*.STA[35].mobility.constraintAreaMinX = 101.79585949550078m
*.STA[35].mobility.constraintAreaMaxX = 101.79585949550078m
*.STA[35].mobility.constraintAreaMinY = 61.39740316426316m
*.STA[35].mobility.constraintAreaMaxY = 61.39740316426316m
*.STA[35].mobility.constraintAreaMinZ = 1.5m
*.STA[35].mobility.constraintAreaMaxZ = 1.5m
*.STA[36].mobility.constraintAreaMinX = 21.8851846890218m
*.STA[36].mobility.constraintAreaMaxX = 21.8851846890218m
*.STA[36].mobility.constraintAreaMinY = 28.62480887414255m
*.STA[36].mobility.constraintAreaMaxY = 28.62480887414255m
*.STA[36].mobility.constraintAreaMinZ = 1.5m
*.STA[36].mobility.constraintAreaMaxZ = 1.5m
*.STA[37].mobility.constraintAreaMinX = 55.90166157456048m
*.STA[37].mobility.constraintAreaMaxX = 55.90166157456048m
*.STA[37].mobility.constraintAreaMinY = 42.54740193455388m
*.STA[37].mobility.constraintAreaMaxY = 42.54740193455388m
*.STA[37].mobility.constraintAreaMinZ = 1.5m
*.STA[37].mobility.constraintAreaMaxZ = 1.5m
*.STA[38].mobility.constraintAreaMinX = 17.924380663464056m
*.STA[38].mobility.constraintAreaMaxX = 17.924380663464056m
*.STA[38].mobility.constraintAreaMinY = 55.021847142130625m
*.STA[38].mobility.constraintAreaMaxY = 55.021847142130625m
*.STA[38].mobility.constraintAreaMinZ = 1.5m
*.STA[38].mobility.constraintAreaMaxZ = 1.5m
*.STA[39].mobility.constraintAreaMinX = 7.213237236619715m
*.STA[39].mobility.constraintAreaMaxX = 7.213237236619715m
*.STA[39].mobility.constraintAreaMinY = 121.72087913443002m
*.STA[39].mobility.constraintAreaMaxY = 121.72087913443002m
*.STA[39].mobility.constraintAreaMinZ = 1.5m
*.STA[39].mobility.constraintAreaMaxZ = 1.5m
*.STA[40].mobility.constraintAreaMinX = 70.41633017324695m
*.STA[40].mobility.constraintAreaMaxX = 70.41633017324695m
*.STA[40].mobility.constraintAreaMinY = 40.45691521855891m
*.STA[40].mobility.constraintAreaMaxY = 40.45691521855891m
*.STA[40].mobility.constraintAreaMinZ = 1.5m
*.STA[40].mobility.constraintAreaMaxZ = 1.5m
*.STA[41].mobility.constraintAreaMinX = 66.59453423902971m
*.STA[41].mobility.constraintAreaMaxX = 66.59453423902971m
*.STA[41].mobility.constraintAreaMinY = 41.1345514172432m
*.STA[41].mobility.constraintAreaMaxY = 41.1345514172432m
*.STA[41].mobility.constraintAreaMinZ = 1.5m
*.STA[41].mobility.constraintAreaMaxZ = 1.5m
*.STA[42].mobility.constraintAreaMinX = 6.893026193755763m
*.STA[42].mobility.constraintAreaMaxX = 6.893026193755763m
*.STA[42].mobility.constraintAreaMinY = 75.35240274858663m
*.STA[42].mobility.constraintAreaMaxY = 75.35240274858663m
*.STA[42].mobility.constraintAreaMinZ = 1.5m
*.STA[42].mobility.constraintAreaMaxZ = 1.5m
*.STA[43].mobility.constraintAreaMinX = 23.767565882856555m
*.STA[43].mobility.constraintAreaMaxX = 23.767565882856555m
*.STA[43].mobility.constraintAreaMinY = 95.17591215928127m
*.STA[43].mobility.constraintAreaMaxY = 95.17591215928127m
*.STA[43].mobility.constraintAreaMinZ = 1.5m
*.STA[43].mobility.constraintAreaMaxZ = 1.5m
*.STA[44].mobility.constraintAreaMinX = 102.97979643136483m
*.STA[44].mobility.constraintAreaMaxX = 102.97979643136483m
*.STA[44].mobility.constraintAreaMinY = 89.46903147338895m
*.STA[44].mobility.constraintAreaMaxY = 89.46903147338895m
*.STA[44].mobility.constraintAreaMinZ = 1.5m
*.STA[44].mobility.constraintAreaMaxZ = 1.5m
*.STA[45].mobility.constraintAreaMinX = 89.27970591548205m
*.STA[45].mobility.constraintAreaMaxX = 89.27970591548205m
*.STA[45].mobility.constraintAreaMinY = 46.71416659836616m
*.STA[45].mobility.constraintAreaMaxY = 46.71416659836616m
*.STA[45].mobility.constraintAreaMinZ = 1.5m
*.STA[45].mobility.constraintAreaMaxZ = 1.5m
*.STA[46].mobility.constraintAreaMinX = 65.39085838380572m
*.STA[46].mobility.constraintAreaMaxX = 65.39085838380572m
*.STA[46].mobility.constraintAreaMinY = 29.73577983678648m
*.STA[46].mobility.constraintAreaMaxY = 29.73577983678648m
*.STA[46].mobility.constraintAreaMinZ = 1.5m
*.STA[46].mobility.constraintAreaMaxZ = 1.5m
*.STA[47].mobility.constraintAreaMinX = 91.64813827875783m
*.STA[47].mobility.constraintAreaMaxX = 91.64813827875783m
*.STA[47].mobility.constraintAreaMinY = 58.66673657276617m
*.STA[47].mobility.constraintAreaMaxY = 58.66673657276617m
*.STA[47].mobility.constraintAreaMinZ = 1.5m
*.STA[47].mobility.constraintAreaMaxZ = 1.5m
*.STA[48].mobility.constraintAreaMinX = 113.62528408150159m
*.STA[48].mobility.constraintAreaMaxX = 113.62528408150159m
*.STA[48].mobility.constraintAreaMinY = 47.96452621676425m
*.STA[48].mobility.constraintAreaMaxY = 47.96452621676425m
*.STA[48].mobility.constraintAreaMinZ = 1.5m
*.STA[48].mobility.constraintAreaMaxZ = 1.5m
*.STA[49].mobility.constraintAreaMinX = 89.06338175983838m
*.STA[49].mobility.constraintAreaMaxX = 89.06338175983838m
*.STA[49].mobility.constraintAreaMinY = 45.460024419307736m
*.STA[49].mobility.constraintAreaMaxY = 45.460024419307736m
*.STA[49].mobility.constraintAreaMinZ = 1.5m
*.STA[49].mobility.constraintAreaMaxZ = 1.5m
*.STA[50].mobility.constraintAreaMinX = 5.504027399668271m
*.STA[50].mobility.constraintAreaMaxX = 5.504027399668271m
*.STA[50].mobility.constraintAreaMinY = 33.66365971070287m
*.STA[50].mobility.constraintAreaMaxY = 33.66365971070287m
*.STA[50].mobility.constraintAreaMinZ = 1.5m
*.STA[50].mobility.constraintAreaMaxZ = 1.5m
*.STA[51].mobility.constraintAreaMinX = 81.05346075030002m